*SPEF "IEEE 1481-1998"
*DESIGN "counter"
*DATE "Sat Aug 19 05:42:05 2023"
*VENDOR "Cadence Design Systems, Inc."
*PROGRAM "Innovus"
*VERSION "21.10-p004_1"
*DESIGN_FLOW "COUPLING C" "PIN_CAP NONE" "NAME_SCOPE LOCAL"
*DIVIDER /
*DELIMITER :
*BUS_DELIMITER []
*T_UNIT 1 NS
*C_UNIT 1 PF
*R_UNIT 1 OHM
*L_UNIT 1 HENRY

// MMMC spef file for corner 'rc_corner'

*NAME_MAP

*1 FE_RN_0_0
*2 clk
*3 rst
*4 count[7]
*5 count[6]
*6 count[5]
*7 count[4]
*8 count[3]
*9 count[2]
*10 count[1]
*11 count[0]
*12 n_0
*13 n_1
*14 n_2
*15 n_3
*16 n_4
*17 n_5
*18 n_6
*19 n_7
*20 n_8
*21 n_9
*22 n_10
*23 n_11
*24 n_12
*25 n_13
*26 n_14
*27 n_15
*28 FE_RC_1_0
*29 FE_RC_0_0
*30 count_reg\[6\]
*31 count_reg\[5\]
*32 count_reg\[7\]
*33 g260__2398
*34 g263__5107
*35 g269__6260
*36 count_reg\[3\]
*37 count_reg\[4\]
*38 count_reg\[2\]
*39 g267__4319
*40 g270__8428
*41 g266__5526
*42 g272__6783
*43 g271__1617
*44 count_reg\[1\]
*45 g275__2802
*46 g276__1705
*47 g278__5122
*48 g277
*49 g280__8246
*50 g281__7098
*51 count_reg\[0\]


*PORTS

*2 I *C 0 9.405
*3 I *C 0 4.655
*4 O *C 19.9 17.1
*5 O *C 17.5 17.1
*6 O *C 15.1 17.1
*7 O *C 12.7 17.1
*8 O *C 10.3 17.1
*9 O *C 7.9 17.1
*10 O *C 5.5 17.1
*11 O *C 3.1 17.1


*D_NET *1 1.968e-05

*CONN
*I *29:A I *C 17.3 11.305 *L 0.000392 *D NAND3X1
*I *28:Y O *C 17.14 11.015 *L 0 *D AND2X1

*CAP
1 *29:A 9.84e-06
2 *28:Y 9.84e-06

*RES
1 *28:Y *29:A 0.515389
*END

*D_NET *2 0.00350773

*CONN
*P *2 I *C 0 9.405 *L 0
*I *51:CK I *C 5.9 7.695 *L 0.00021 *D DFFRX1
*I *44:CK I *C 5.3 9.405 *L 0.00021 *D DFFRHQX1
*I *38:CK I *C 9.9 9.405 *L 0.00021 *D DFFRHQX1
*I *37:CK I *C 13.5 9.405 *L 0.00021 *D DFFRHQX1
*I *36:CK I *C 9.3 5.985 *L 0.00021 *D DFFRHQX1
*I *32:CK I *C 17.3 9.405 *L 0.00021 *D DFFRHQX1
*I *31:CK I *C 12.1 7.695 *L 0.00021 *D DFFRHQX1
*I *30:CK I *C 17.1 7.695 *L 0.00021 *D DFFRHQX1

*CAP
1 *2 6.12426e-06
2 *51:CK 2.26678e-05
3 *44:CK 2.26678e-05
4 *38:CK 2.26678e-05
5 *37:CK 2.26678e-05
6 *36:CK 2.26678e-05
7 *32:CK 2.26678e-05
8 *31:CK 2.26678e-05
9 *30:CK 2.26678e-05
10 *2:9 0.00023165
11 *2:10 0.000243903
12 *2:11 1.90694e-05
13 *2:12 1.90694e-05
14 *2:13 1.91195e-05
15 *2:14 0.00017183
16 *2:15 0.000234772
17 *2:16 0.00019323
18 *2:17 0.00032844
19 *2:18 0.000226613
20 *2:19 0.00018659
21 *2:20 0.00018659
22 *2:30 1.89742e-05
23 *2:31 1.78917e-05
24 *2:32 0.000243302
25 *2:33 1.78917e-05
26 *2:34 0.000264892
27 *2:35 9.3182e-05
28 *2:36 0.00018025
29 *2:37 9.39388e-05
30 *2:38 1.78917e-05
31 *2:39 1.78917e-05
32 *2:40 1.78917e-05
33 *2:41 1.78917e-05
34 *2:42 0.000101917
35 *2:43 0.000101917
36 *2:44 1.78917e-05
37 *2:45 1.78917e-05
38 *2:46 1.78917e-05

*RES
1 *2:41 *31:CK 7.99993
2 *2:26 *2:41 0.85804
3 *2:45 *30:CK 7.99993
4 *2:28 *2:45 0.85804
5 *2:39 *36:CK 7.99993
6 *2:24 *2:39 0.85804
7 *2:13 *2:41 7.99993
8 *2:9 *2:45 7.99993
9 *2:38 *51:CK 7.99993
10 *2:23 *2:38 0.85804
11 *2:19 *2:39 7.99993
12 *2:13 *2:10 0.599978
13 *2:10 *2:9 15.222661
14 *2:46 *32:CK 7.99993
15 *2:29 *2:46 0.85804
16 *2:11 *2:38 7.99993
17 *2:20 *2:19 10.7123
18 *2:42 *2:10 7.99993
19 *2:44 *37:CK 7.99993
20 *2:27 *2:44 0.85804
21 *2:14 *2:46 7.99993
22 *2:12 *2:11 0.597423
23 *2:35 *2:20 7.99993
24 *2:42 *2:43 5.08715
25 *2:15 *2:44 7.99993
26 *2:15 *2:14 12.62
27 *2:36 *2:12 7.99993
28 *2:35 *2:36 5.08715
29 *2:40 *38:CK 7.99993
30 *2:25 *2:40 0.85804
31 *2:16 *2:43 7.99993
32 *2:16 *2:15 3.57478
33 *2:36 *2:37 5.08715
34 *2:17 *2:40 7.99993
35 *2:17 *2:16 7.15722
36 *2:33 *44:CK 7.99993
37 *2:22 *2:33 0.85804
38 *2:18 *2:37 7.99993
39 *2:18 *2:17 13.4234
40 *2:34 *2:33 7.99993
41 *2:34 *2:18 1.18997
42 *2:32 *2:34 14.2798
43 *2 *2:30 0.681275
44 *2:31 *2:32 7.99993
45 *2:31 *2:30 7.99993
46 *2:21 *2:31 0.85804
*END

*D_NET *3 0.00370972

*CONN
*P *3 I *C 0 4.655 *L 0
*I *51:RN I *C 6.5 7.695 *L 0.000422 *D DFFRX1
*I *44:RN I *C 6.3 9.405 *L 0.000617 *D DFFRHQX1
*I *38:RN I *C 10.9 9.405 *L 0.000617 *D DFFRHQX1
*I *37:RN I *C 14.5 9.405 *L 0.000617 *D DFFRHQX1
*I *36:RN I *C 10.3 5.985 *L 0.000617 *D DFFRHQX1
*I *32:RN I *C 18.3 9.405 *L 0.000617 *D DFFRHQX1
*I *31:RN I *C 13.1 7.695 *L 0.000617 *D DFFRHQX1
*I *30:RN I *C 18.1 7.695 *L 0.000617 *D DFFRHQX1

*CAP
1 *3 0.000388703
2 *51:RN 2.26669e-05
3 *44:RN 2.26669e-05
4 *38:RN 2.26669e-05
5 *37:RN 2.26669e-05
6 *36:RN 2.26669e-05
7 *32:RN 2.26669e-05
8 *31:RN 2.26669e-05
9 *30:RN 2.26669e-05
10 *3:9 6.56782e-05
11 *3:10 5.1267e-05
12 *3:11 0.000225888
13 *3:12 0.000101262
14 *3:13 9.00009e-05
15 *3:14 9.00009e-05
16 *3:15 4.99485e-05
17 *3:16 0.000212519
18 *3:17 0.000169439
19 *3:18 0.000142717
20 *3:19 0.000225481
21 *3:20 8.20747e-05
22 *3:21 8.20747e-05
23 *3:22 0.000208717
24 *3:23 0.000250586
25 *3:25 2.69903e-05
26 *3:26 2.69903e-05
27 *3:27 1.78913e-05
28 *3:28 0.00050236
29 *3:29 0.000123492
30 *3:30 7.62413e-05
31 *3:31 7.62413e-05
32 *3:32 2.67603e-05
33 *3:33 2.67603e-05
34 *3:34 2.25596e-05
35 *3:35 3.5407e-05
36 *3:36 3.07311e-05
37 *3:37 3.44795e-05
38 *3:38 3.91632e-05
39 *3:39 2.59631e-05

*RES
1 *3:37 *30:RN 8.00007
2 *3:37 *3:38 1.69454
3 *3:36 *37:RN 8.00007
4 *3:38 *3:10 0.906618
5 *3:39 *32:RN 8.00007
6 *3:35 *3:36 1.23264
7 *3:10 *3:9 2.26869
8 *3:9 *3:39 1.12959
9 *3:21 *31:RN 8.00007
10 *3:34 *3:35 0.906618
11 *3:22 *3:9 8.00007
12 *3:31 *36:RN 8.00007
13 *3:26 *44:RN 8.00007
14 *3:33 *38:RN 8.00007
15 *3:21 *3:20 4.21841
16 *3:23 *3:34 8.00007
17 *3:23 *3:22 12.6706
18 *3:30 *3:31 3.95372
19 *3:25 *3:26 1.13419
20 *3:32 *3:33 1.12959
21 *3:18 *3:20 8.00007
22 *3:18 *3:23 4.10524
23 *3:29 *3:30 8.00007
24 *3:12 *3:25 8.00007
25 *3:19 *3:32 8.00007
26 *3:19 *3:18 7.14989
27 *3 *3:28 20.100172
28 *3:28 *3:29 5.66943
29 *3:12 *3:11 5.39922
30 *3:11 *3:19 9.0625
31 *3:17 *3:28 8.00007
32 *3:15 *3:11 8.00007
33 *3:17 *3:16 9.0395
34 *3:16 *3:15 4.58155
35 *3:13 *3:16 8.00007
36 *3:14 *3:13 4.77968
37 *3:27 *51:RN 8.00007
38 *3:27 *3:14 8.00007
39 *3:24 *3:27 0.858159
*END

*D_NET *4 0.000986005

*CONN
*P *4 O *C 19.9 17.1 *L 0
*I *35:A I *C 19.215 11.155 *L 0.000211 *D XNOR2X1
*I *32:Q O *C 17.14 9.1 *L 0 *D DFFRHQX1

*CAP
1 *4 3.90404e-05
2 *35:A 2.26708e-05
3 *32:Q 2.26708e-05
4 *4:3 2.98121e-05
5 *4:4 2.98121e-05
6 *4:5 8.28089e-05
7 *4:6 3.32398e-05
8 *4:7 8.28089e-05
9 *4:8 0.00029287
10 *4:9 3.06791e-05
11 *4:10 0.000266499
12 *4:11 5.30906e-05

*RES
1 *4:11 *4 2.06149
2 *4:9 *4:11 1.10973
3 *4:10 *4:9 8.00006
4 *4:8 *35:A 8.00006
5 *4:8 *4:10 16.9448986
6 *4:6 *4:8 1.12964
7 *4:7 *4:6 8.00006
8 *4:5 *4:7 7.03564
9 *4:3 *4:5 8.00006
10 *4:4 *4:3 1.99323
11 *32:Q *4:4 8.00006
*END

*D_NET *5 0.00153527

*CONN
*I *28:A I *C 16.965 11.37 *L 0.00021 *D AND2X1
*P *5 O *C 17.5 17.1 *L 0
*I *33:A I *C 18.015 5.945 *L 0.000211 *D XNOR2X1
*I *30:Q O *C 16.94 8 *L 0 *D DFFRHQX1

*CAP
1 *28:A 2.26711e-05
2 *5 9.75876e-06
3 *33:A 2.26711e-05
4 *30:Q 2.26711e-05
5 *5:4 9.66894e-05
6 *5:5 6.47812e-05
7 *5:6 2.67699e-05
8 *5:7 4.50597e-05
9 *5:8 6.12982e-05
10 *5:9 0.000102141
11 *5:10 0.000160219
12 *5:11 0.000105758
13 *5:12 4.23612e-05
14 *5:13 4.23612e-05
15 *5:14 6.90997e-05
16 *5:15 6.90997e-05
17 *5:16 0.00025705
18 *5:17 2.26083e-05
19 *5:18 0.00023876
20 *5:19 3.58619e-05
21 *5:20 1.7572e-05

*RES
1 *5 *5:17 0.515437
2 *5:6 *28:A 8.00009
3 *5:18 *5:17 8.00009
4 *5:6 *5:7 1.13419
5 *5:16 *5:18 15.2504091
6 *5:7 *5:9 1.81345
7 *5:9 *5:16 1.81345
8 *5:8 *5:9 4.74085
9 *5:8 *5:13 0.90661
10 *5:12 *5:13 1.69454
11 *5:12 *5:15 0.90661
12 *5:20 *33:A 8.00009
13 *5:14 *5:15 5.05012
14 *5:19 *5:20 0.567097
15 *5:11 *5:14 0.90661
16 *5:10 *5:19 1.81345
17 *5:10 *5:11 7.83766
18 *5:5 *30:Q 8.00009
19 *5:4 *5:10 2.72006
20 *5:4 *5:5 3.41235
*END

*D_NET *6 0.00204697

*CONN
*I *29:B I *C 17.5 11.115 *L 0.00039 *D NAND3X1
*P *6 O *C 15.1 17.1 *L 0
*I *39:A I *C 15.21 11.12 *L 0.000792 *D NAND2X2
*I *34:A0 I *C 15.5 7.505 *L 0.000211 *D OA21X1
*I *31:Q O *C 11.94 8 *L 0 *D DFFRHQX1

*CAP
1 *29:B 2.2668e-05
2 *6 2.9281e-05
3 *39:A 2.2668e-05
4 *34:A0 2.2668e-05
5 *31:Q 2.2668e-05
6 *6:5 2.95492e-05
7 *6:6 2.95492e-05
8 *6:7 0.000192432
9 *6:8 0.000160318
10 *6:9 3.89831e-05
11 *6:10 4.31086e-05
12 *6:11 4.31086e-05
13 *6:12 0.000141401
14 *6:13 0.000136719
15 *6:14 0.000165817
16 *6:15 0.000165817
17 *6:16 0.000101959
18 *6:17 8.75503e-05
19 *6:18 1.74613e-05
20 *6:19 1.74613e-05
21 *6:20 0.00026637
22 *6:21 4.2129e-05
23 *6:22 0.000247279

*RES
1 *6:6 *29:B 8.00005
2 *6:6 *6:5 1.23267
3 *6:14 *6:5 8.00005
4 *6:21 *6 1.54615
5 *6:15 *6:14 8.96171
6 *6:22 *6:21 8.00005
7 *6:20 *6:15 8.00005
8 *6:20 *6:22 15.8152399
9 *6:16 *39:A 8.00005
10 *6:16 *6:20 1.12963
11 *6:17 *6:16 4.17003
12 *6:10 *34:A0 8.00005
13 *6:17 *6:12 0.906645
14 *6:11 *6:10 1.70373
15 *6:13 *6:12 9.88911
16 *6:9 *6:11 8.00005
17 *6:7 *6:13 8.00005
18 *6:7 *6:9 2.65984
19 *6:8 *6:7 9.12243
20 *6:19 *31:Q 8.00005
21 *6:18 *6:8 8.00005
22 *6:18 *6:19 0.564933
*END

*D_NET *7 0.00142751

*CONN
*I *28:B I *C 16.5 11.115 *L 0.000211 *D AND2X1
*P *7 O *C 12.7 17.1 *L 0
*I *43:A I *C 12.54 11.38 *L 0.000291 *D CLKAND2X2
*I *40:A0N I *C 13.94 11.52 *L 0.000211 *D AOI2BB1XL
*I *37:Q O *C 13.34 9.1 *L 0 *D DFFRHQX1

*CAP
1 *28:B 2.97136e-05
2 *7 9.75829e-06
3 *43:A 2.26728e-05
4 *40:A0N 2.26728e-05
5 *37:Q 2.26728e-05
6 *7:5 4.36418e-05
7 *7:6 4.36418e-05
8 *7:7 8.20531e-05
9 *7:8 0.00027914
10 *7:9 3.06805e-05
11 *7:10 0.000249478
12 *7:11 2.38101e-05
13 *7:12 1.74593e-05
14 *7:13 5.80003e-05
15 *7:14 6.30903e-05
16 *7:15 7.64137e-05
17 *7:16 0.000134499
18 *7:17 4.10606e-05
19 *7:18 0.000134499
20 *7:19 4.256e-05

*RES
1 *7:19 *28:B 1.54615
2 *7:5 *7:19 8.00005
3 *7:6 *7:5 3.33192
4 *7:18 *7:6 8.00005
5 *7:11 *7 0.515463
6 *7:16 *7:18 6.67133
7 *7:17 *40:A0N 8.00005
8 *7:9 *7:11 1.10984
9 *7:12 *37:Q 8.00005
10 *7:15 *7:16 8.00005
11 *7:15 *7:17 3.32879
12 *7:10 *7:9 8.00005
13 *7:12 *7:13 0.564933
14 *7:13 *7:15 2.72018
15 *7:8 *43:A 8.00005
16 *7:8 *7:10 15.8152399
17 *7:13 *7:14 0.567105
18 *7:7 *7:8 3.32227
19 *7:7 *7:14 3.62682
*END

*D_NET *8 0.00195674

*CONN
*P *8 O *C 10.3 17.1 *L 0
*I *49:A I *C 9.3 11.115 *L 0.00039 *D NAND2X1
*I *41:A I *C 13.015 5.945 *L 0.000211 *D XNOR2X1
*I *36:Q O *C 9.14 5.68 *L 0 *D DFFRHQX1

*CAP
1 *8 1.95188e-05
2 *49:A 2.26702e-05
3 *41:A 2.26702e-05
4 *36:Q 2.26702e-05
5 *8:4 0.000275221
6 *8:5 0.000298451875
7 *8:6 3.01025e-05
8 *8:7 6.526e-05
9 *8:8 3.59682e-05
10 *8:9 1.7679e-05
11 *8:10 1.7679e-05
12 *8:11 0.00013685
13 *8:12 0.000197879
14 *8:13 6.3912e-05
15 *8:14 6.3912e-05
16 *8:16 1.78884e-05
17 *8:17 6.79014e-05
18 *8:18 6.16623e-05
19 *8:19 0.000259419
20 *8:20 0.000259419

*RES
1 *8:18 *8 1.03081
2 *8:7 *8:18 3.32945
3 *8:8 *8:7 2.00519
4 *8:6 *49:A 8.00008
5 *8:4 *8:8 8.00008
6 *8:6 *8:5 1.23279
7 *8:5 *8:4 15.4095097
8 *8:14 *8:5 8.00008
9 *8:14 *8:13 2.98733
10 *8:10 *41:A 8.00008
11 *8:20 *8:13 8.00008
12 *8:10 *8:9 0.569486
13 *8:19 *8:20 15.2616
14 *8:11 *8:9 8.00008
15 *8:12 *8:19 8.00008
16 *8:12 *8:11 7.91637
17 *8:17 *8:12 3.57234
18 *8:16 *8:17 8.00008
19 *8:16 *36:Q 8.00008
20 *8:15 *8:16 0.857991
*END

*D_NET *9 0.00171842

*CONN
*P *9 O *C 7.9 17.1 *L 0
*I *49:B I *C 9.5 10.735 *L 0.000392 *D NAND2X1
*I *45:A I *C 9.5 7.695 *L 0.00039 *D NAND2X1
*I *42:A0 I *C 10.1 7.505 *L 0.000211 *D OA21X1
*I *38:Q O *C 9.74 9.1 *L 0 *D DFFRHQX1

*CAP
1 *9 7.81808e-05
2 *49:B 2.26697e-05
3 *45:A 2.26697e-05
4 *42:A0 2.26697e-05
5 *38:Q 2.26697e-05
6 *9:5 2.3848e-05
7 *9:6 0.000137203
8 *9:7 0.000108678
9 *9:8 6.29835e-05
10 *9:9 0.00039397
11 *9:10 3.06772e-05
12 *9:11 0.000383378
13 *9:12 9.22299e-05
14 *9:13 6.54783e-05
15 *9:14 2.25555e-05
16 *9:15 3.61718e-05
17 *9:16 1.74577e-05
18 *9:17 2.21407e-05
19 *9:18 6.95902e-05
20 *9:19 8.32005e-05

*RES
1 *9:16 *42:A0 8.00013
2 *9:16 *9:17 0.564694
3 *9:14 *9:17 0.906802
4 *9:5 *45:A 8.00013
5 *9:14 *9:15 0.567293
6 *9:5 *9:6 1.26825
7 *9:6 *9:15 1.81332
8 *9:6 *9:7 5.65301
9 *9:7 *9:13 0.906802
10 *9:13 *38:Q 8.00013
11 *9:13 *9:18 2.72012
12 *9:18 *9:19 1.69437
13 *9:8 *9:19 3.62692
14 *9:9 *49:B 8.00013
15 *9:8 *9:9 0.564694
16 *9:9 *9:11 18.9201508
17 *9:10 *9:11 8.00013
18 *9:10 *9:12 1.10976
19 *9 *9:12 4.12319
*END

*D_NET *10 0.00108869

*CONN
*P *10 O *C 5.5 17.1 *L 0
*I *50:A I *C 6.54 10.975 *L 0.0016 *D NAND2X4
*I *47:A0 I *C 7.1 10.925 *L 0.000211 *D OA21X1
*I *44:Q O *C 5.14 9.1 *L 0 *D DFFRHQX1

*CAP
1 *10 1.00897e-05
2 *50:A 2.2669e-05
3 *47:A0 2.2669e-05
4 *44:Q 2.2669e-05
5 *10:4 0.000103572
6 *10:5 0.000103572
7 *10:7 3.79716e-05
8 *10:8 4.26535e-05
9 *10:9 3.1453e-05
10 *10:10 0.00031928
11 *10:11 3.06784e-05
12 *10:12 0.000299383
13 *10:13 2.41403e-05
14 *10:14 1.78896e-05

*RES
1 *10:7 *44:Q 7.99994
2 *10:13 *10 0.502418
3 *10:7 *10:8 1.70152
4 *10:11 *10:13 1.10982
5 *10:8 *10:9 0.906656
6 *10:12 *10:11 7.99994
7 *10:10 *50:A 7.99994
8 *10:9 *10:10 1.13443
9 *10:10 *10:12 17.1581364
10 *10:5 *10:10 7.99994
11 *10:5 *10:4 6.07483
12 *10:14 *47:A0 7.99994
13 *10:14 *10:4 7.99994
14 *10:6 *10:14 0.857959
*END

*D_NET *11 0.00138466

*CONN
*P *11 O *C 3.1 17.1 *L 0
*I *51:Q O *C 5.73 7.425 *L 0 *D DFFRX1
*I *50:B I *C 6.23 11.135 *L 0.00161 *D NAND2X4
*I *47:A1 I *C 7.39 11.37 *L 0.000212 *D OA21X1

*CAP
1 *11 8.78371e-05
2 *51:Q 2.26692e-05
3 *50:B 2.26692e-05
4 *47:A1 2.26692e-05
5 *11:4 0.00015529
6 *11:5 0.000133078
7 *11:6 0.00026548
8 *11:7 9.36583e-05
9 *11:8 9.36583e-05
10 *11:9 0.000243269
11 *11:10 3.91404e-05
12 *11:11 5.43802e-05
13 *11:12 0.000115931
14 *11:13 1.74597e-05
15 *11:14 1.74597e-05

*RES
1 *11:13 *47:A1 8.0001
2 *11:13 *11:14 0.564766
3 *11:7 *11:14 8.0001
4 *11:5 *51:Q 8.0001
5 *11:8 *11:7 4.77711
6 *11:4 *50:B 8.0001
7 *11:5 *11:4 13.1901
8 *11:6 *11:8 8.0001
9 *11:4 *11:6 1.22898
10 *11:6 *11:9 14.7460136
11 *11:10 *11:9 8.0001
12 *11:11 *11:10 2.71965
13 *11:11 *11:12 2.21969
14 *11 *11:12 4.6385
*END

*D_NET *12 0.000419811

*CONN
*I *51:D I *C 8.5 7.505 *L 0.00021 *D DFFRX1
*I *51:QN O *C 5.1 7.315 *L 0 *D DFFRX1

*CAP
1 *51:D 2.26703e-05
2 *51:QN 2.26703e-05
3 *12:2 2.75801e-05
4 *12:3 2.75801e-05
5 *12:5 1.78893e-05
6 *12:6 0.00015071
7 *12:7 0.00015071

*RES
1 *12:3 *51:D 7.99997
2 *12:3 *12:2 1.55603
3 *12:7 *12:2 7.99997
4 *12:6 *12:7 11.2718134
5 *12:5 *12:6 7.99997
6 *12:5 *51:QN 7.99997
7 *12:4 *12:5 0.858079
*END

*D_NET *13 0.00020466

*CONN
*I *49:Y O *C 9.755 11.16 *L 0 *D NAND2X1
*I *46:A I *C 9.015 11.09 *L 0.000793 *D NOR2X2

*CAP
1 *49:Y 2.26702e-05
2 *46:A 2.26702e-05
3 *13:2 6.177e-05
4 *13:3 6.177e-05
5 *13:6 1.78896e-05
6 *13:7 1.78896e-05

*RES
1 *13:5 *13:7 0.858032
2 *13:7 *49:Y 8
3 *13:2 *13:7 8
4 *13:3 *13:2 4.84253
5 *13:6 *46:A 8
6 *13:6 *13:3 8
7 *13:4 *13:6 0.858032
*END

*D_NET *14 0.000789573

*CONN
*I *50:Y O *C 6.695 11.155 *L 0 *D NAND2X4
*I *48:A I *C 8.7 9.595 *L 0.000395 *D INVX1
*I *47:B0 I *C 7.5 10.925 *L 0.00021 *D OA21X1
*I *46:B I *C 8.765 11.37 *L 0.000793 *D NOR2X2

*CAP
1 *50:Y 2.26696e-05
2 *48:A 2.26696e-05
3 *47:B0 2.26696e-05
4 *46:B 2.26696e-05
5 *14:4 2.69294e-05
6 *14:5 2.69294e-05
7 *14:6 4.45097e-05
8 *14:7 7.84488e-05
9 *14:8 4.45097e-05
10 *14:9 1.74597e-05
11 *14:10 0.000109820605
12 *14:11 1.74597e-05
13 *14:12 8.67807e-05
14 *14:13 0.00010632
15 *14:14 4.39802e-05
16 *14:15 3.07602e-05
17 *14:16 3.42206e-05
18 *14:17 3.07602e-05

*RES
1 *14:5 *48:A 8
2 *14:5 *14:4 1.13904
3 *14:17 *46:B 8
4 *14:14 *14:4 8
5 *14:15 *14:17 1.94861
6 *14:11 *47:B0 8
7 *14:12 *14:14 1.79968
8 *14:16 *14:15 8
9 *14:9 *14:11 0.564819
10 *14:12 *14:13 3.448
11 *14:13 *14:16 1.94141
12 *14:10 *14:9 8
13 *14:10 *14:13 1.78503
14 *14:7 *14:10 4.7666
15 *14:8 *50:Y 8
16 *14:6 *14:7 8
17 *14:6 *14:8 2.26868
*END

*D_NET *15 0.0002022

*CONN
*I *47:Y O *C 8.14 10.81 *L 0 *D OA21X1
*I *44:D I *C 8.365 9.555 *L 0.000307 *D DFFRHQX1

*CAP
1 *47:Y 2.26702e-05
2 *44:D 2.26702e-05
3 *15:2 5.166e-05
4 *15:3 4.698e-05
5 *15:4 2.677e-05
6 *15:5 3.145e-05

*RES
1 *15:4 *44:D 8
2 *15:4 *15:5 1.13428
3 *15:3 *47:Y 8
4 *15:2 *15:5 0.906738
5 *15:2 *15:3 2.25928
*END

*D_NET *16 0.000450433

*CONN
*I *48:Y O *C 8.93 8.97 *L 0 *D INVX1
*I *45:B I *C 9.7 7.315 *L 0.000392 *D NAND2X1
*I *42:A1 I *C 10.39 7.95 *L 0.000212 *D OA21X1

*CAP
1 *48:Y 2.26701e-05
2 *45:B 3.96104e-05
3 *42:A1 2.26701e-05
4 *16:3 3.9951e-05
5 *16:4 5.55711e-05
6 *16:5 2.24903e-05
7 *16:7 5.24603e-05
8 *16:8 8.856e-05
9 *16:9 1.78904e-05
10 *16:10 8.856e-05

*RES
1 *16:7 *45:B 2.06152
2 *16:5 *16:7 8
3 *16:3 *48:Y 8
4 *16:5 *16:4 1.26831
5 *16:4 *16:3 3.99878
6 *16:8 *16:4 8
7 *16:8 *16:10 4.16492
8 *16:9 *42:A1 8
9 *16:9 *16:10 8
10 *16:6 *16:9 0.858032
*END

*D_NET *17 0.00103996

*CONN
*I *29:C I *C 17.79 11.06 *L 0.000392 *D NAND3X1
*I *46:Y O *C 9.155 11.21 *L 0 *D NOR2X2
*I *43:B I *C 12.1 11.115 *L 0.000285 *D CLKAND2X2
*I *40:A1N I *C 14.34 11.1 *L 0.00021 *D AOI2BB1XL

*CAP
1 *29:C 2.26674e-05
2 *46:Y 2.26674e-05
3 *43:B 2.26674e-05
4 *40:A1N 2.26674e-05
5 *17:4 1.82038e-05
6 *17:5 1.82038e-05
7 *17:6 1.99509e-05
8 *17:7 1.99509e-05
9 *17:8 2.67691e-05
10 *17:9 2.67691e-05
11 *17:10 0.00027262
12 *17:11 0.000197742
13 *17:12 0.000194518
14 *17:13 0.000119643
15 *17:14 1.74592e-05
16 *17:15 1.74592e-05

*RES
1 *17:15 *29:C 8
2 *17:6 *40:A1N 8
3 *17:14 *17:15 0.564763
4 *17:8 *43:B 8
5 *17:7 *17:6 0.619147
6 *17:12 *17:14 8
7 *17:9 *17:8 1.13435
8 *17:10 *17:7 8
9 *17:10 *17:12 10.5448122
10 *17:11 *17:9 8
11 *17:11 *17:10 7.61255
12 *17:13 *17:11 10.1503
13 *17:4 *46:Y 8
14 *17:5 *17:13 8
15 *17:5 *17:4 0.569429
*END

*D_NET *18 0.00027184

*CONN
*I *29:Y O *C 17.965 11.75 *L 0 *D NAND3X1
*I *35:B I *C 19.945 11.155 *L 0.000419 *D XNOR2X1

*CAP
1 *29:Y 2.97098e-05
2 *35:B 2.26694e-05
3 *18:2 7.056e-05
4 *18:3 7.056e-05
5 *18:6 4.256e-05
6 *18:7 1.78901e-05
7 *18:8 1.78901e-05

*RES
1 *18:8 *35:B 8
2 *18:5 *18:8 0.858032
3 *18:2 *18:8 8
4 *18:3 *18:2 3.57983
5 *29:Y *18:6 1.54614
6 *18:7 *18:3 8
7 *18:7 *18:6 8
8 *18:4 *18:7 0.858032
*END

*D_NET *19 0.000659888

*CONN
*I *45:Y O *C 9.955 7.74 *L 0 *D NAND2X1
*I *42:B0 I *C 10.5 7.505 *L 0.00021 *D OA21X1
*I *41:B I *C 13.745 5.945 *L 0.000419 *D XNOR2X1

*CAP
1 *45:Y 2.26706e-05
2 *42:B0 2.26706e-05
3 *41:B 2.26706e-05
4 *19:3 6.23496e-05
5 *19:4 3.04403e-05
6 *19:5 2.59594e-05
7 *19:6 0.00014283
8 *19:7 7.51102e-05
9 *19:8 2.61795e-05
10 *19:9 4.30898e-05
11 *19:10 4.30898e-05
12 *19:11 0.00014283

*RES
1 *19:9 *41:B 7.99995
2 *19:9 *19:10 2.26166
3 *19:11 *19:10 7.99995
4 *19:6 *19:11 10.4057732
5 *19:5 *19:6 7.99995
6 *19:8 *42:B0 7.99995
7 *19:5 *19:7 1.12972
8 *19:7 *19:8 1.13432
9 *19:4 *45:Y 7.99995
10 *19:3 *19:7 2.72005
11 *19:3 *19:4 1.8347
*END

*D_NET *20 0.00046642

*CONN
*I *42:Y O *C 11.14 7.39 *L 0 *D OA21X1
*I *38:D I *C 12.965 9.555 *L 0.000307 *D DFFRHQX1

*CAP
1 *42:Y 1.97994e-05
2 *38:D 2.26706e-05
3 *20:2 3.26497e-05
4 *20:3 3.44803e-05
5 *20:4 3.44803e-05
6 *20:5 7.98897e-05
7 *20:6 8.12799805e-05
8 *20:7 7.98897e-05
9 *20:8 8.12799805e-05

*RES
1 *20:8 *38:D 8
2 *20:6 *20:8 5.146
3 *20:7 *20:6 8
4 *20:5 *20:7 4.19202
5 *20:4 *20:5 8
6 *20:3 *20:4 1.69446
7 *20:2 *20:3 8
8 *42:Y *20:2 1.03076
*END

*D_NET *21 0.00013494

*CONN
*I *41:Y O *C 12.74 6.285 *L 0 *D XNOR2X1
*I *36:D I *C 12.365 6.135 *L 0.000307 *D DFFRHQX1

*CAP
1 *41:Y 2.26701e-05
2 *36:D 2.26701e-05
3 *21:2 1.75698e-05
4 *21:3 3.58598e-05
5 *21:4 3.617e-05

*RES
1 *21:4 *41:Y 8
2 *21:3 *21:4 1.81335
3 *21:2 *21:3 0.567139
4 *36:D *21:2 8
*END

*D_NET *22 0.000444623

*CONN
*I *40:Y O *C 13.65 10.605 *L 0 *D AOI2BB1XL
*I *37:D I *C 16.565 9.555 *L 0.000307 *D DFFRHQX1

*CAP
1 *40:Y 2.26696e-05
2 *37:D 2.26696e-05
3 *22:2 0.00013371
4 *22:3 0.00013371
5 *22:4 2.75193e-05
6 *22:5 2.75193e-05
7 *22:6 3.84104e-05
8 *22:7 3.84104e-05

*RES
1 *22:6 *37:D 7.99993
2 *22:6 *22:7 2.52802
3 *22:2 *22:7 7.99993
4 *22:3 *22:2 11.3562412
5 *22:4 *40:Y 7.99993
6 *22:5 *22:3 7.99993
7 *22:5 *22:4 1.13431
*END

*D_NET *23 0.000888115

*CONN
*I *43:Y O *C 12.94 10.99 *L 0 *D CLKAND2X2
*I *40:B0 I *C 13.75 11.32 *L 0.000212 *D AOI2BB1XL
*I *39:B I *C 14.9 10.925 *L 0.000796 *D NAND2X2
*I *34:A1 I *C 15.79 7.95 *L 0.000212 *D OA21X1

*CAP
1 *43:Y 2.26713e-05
2 *40:B0 2.26713e-05
3 *39:B 2.26713e-05
4 *34:A1 2.26713e-05
5 *23:4 7.56203e-05
6 *23:5 3.01022e-05
7 *23:6 1.75705e-05
8 *23:7 0.000190739
9 *23:8 0.00022556
10 *23:9 6.34707e-05
11 *23:10 1.79491e-05
12 *23:11 5.47904e-05
13 *23:12 5.47904e-05
14 *23:13 6.68402e-05

*RES
1 *23:5 *34:A1 7.99996
2 *23:5 *23:4 1.2327
3 *23:8 *23:4 3.62678
4 *23:7 *39:B 7.99996
5 *23:8 *23:7 8.54427719
6 *23:7 *23:6 0.567133
7 *23:11 *23:6 7.99996
8 *23:12 *23:11 4.12468
9 *23:13 *40:B0 7.99996
10 *23:13 *23:12 7.99996
11 *23:9 *23:13 3.62678
12 *23:10 *23:9 0.569479
13 *43:Y *23:10 7.99996
*END

*D_NET *24 0.00031591

*CONN
*I *35:Y O *C 18.94 10.815 *L 0 *D XNOR2X1
*I *32:D I *C 20.365 9.555 *L 0.000307 *D DFFRHQX1

*CAP
1 *35:Y 2.26697e-05
2 *32:D 2.26697e-05
3 *24:3 1.78902e-05
4 *24:4 6.41199902e-05
5 *24:5 6.22199e-05
6 *24:6 6.22199e-05
7 *24:7 6.41199902e-05

*RES
1 *24:5 *32:D 8
2 *24:5 *24:6 3.38904
3 *24:7 *24:6 8
4 *24:4 *24:7 4.59412
5 *24:3 *24:4 8
6 *24:3 *35:Y 8
7 *24:2 *24:3 0.858032
*END

*D_NET *25 0.000844662

*CONN
*I *39:Y O *C 15.35 11.255 *L 0 *D NAND2X2
*I *34:B0 I *C 15.9 7.505 *L 0.00021 *D OA21X1
*I *33:B I *C 18.745 5.945 *L 0.000419 *D XNOR2X1

*CAP
1 *39:Y 9.91033e-06
2 *34:B0 2.26712e-05
3 *33:B 2.26712e-05
4 *25:3 2.60687e-05
5 *25:4 2.60687e-05
6 *25:5 9.89209e-05
7 *25:6 6.06909e-05
8 *25:7 8.17299e-05
9 *25:8 8.17299e-05
10 *25:9 3.57196e-05
11 *25:10 0.00011489
12 *25:11 2.187e-05
13 *25:12 2.27606e-05
14 *25:13 0.00011489
15 *25:14 4.97795e-05
16 *25:15 3.17313e-05
17 *25:16 2.2559e-05

*RES
1 *25:4 *33:B 7.99998
2 *25:4 *25:3 1.13202
3 *25:7 *25:3 7.99998
4 *25:8 *25:7 8.42476
5 *25:16 *25:8 7.99998
6 *25:6 *25:16 0.906646
7 *25:5 *34:B0 7.99998
8 *25:6 *25:5 3.67768
9 *25:5 *25:14 2.36736
10 *25:15 *25:14 7.99998
11 *25:9 *25:15 1.19979
12 *25:9 *25:11 0.861931
13 *25:10 *25:11 7.99998
14 *25:10 *25:13 9.10061741
15 *25:12 *25:13 7.99998
16 *39:Y *25:12 0.515326
*END

*D_NET *26 0.000275409

*CONN
*I *34:Y O *C 16.54 7.39 *L 0 *D OA21X1
*I *31:D I *C 15.165 7.545 *L 0.000307 *D DFFRHQX1

*CAP
1 *34:Y 2.26691e-05
2 *31:D 2.26691e-05
3 *26:3 1.78601e-05
4 *26:4 8.823e-05
5 *26:5 1.78601e-05
6 *26:6 1.78897e-05
7 *26:7 8.823e-05

*RES
1 *26:5 *31:D 8
2 *26:3 *26:5 0.567139
3 *26:4 *26:3 8
4 *26:4 *26:7 4.19202
5 *26:6 *26:7 8
6 *26:6 *34:Y 8
7 *26:2 *26:6 0.858032
*END

*D_NET *27 0.000467389

*CONN
*I *33:Y O *C 17.74 6.285 *L 0 *D XNOR2X1
*I *30:D I *C 20.165 7.545 *L 0.000307 *D DFFRHQX1

*CAP
1 *33:Y 2.26702e-05
2 *30:D 2.26702e-05
3 *27:2 7.59587e-05
4 *27:3 7.59587e-05
5 *27:5 0.00012612
6 *27:6 1.78899e-05
7 *27:7 0.00012612

*RES
1 *27:3 *33:Y 8
2 *27:3 *27:2 3.69824
3 *27:5 *27:2 8
4 *27:5 *27:7 7.13989
5 *27:6 *30:D 8
6 *27:6 *27:7 8
7 *27:4 *27:6 0.858032
*END

